Case_Studies/Report/1000_data - Storage/case_ieee123_storage_114.m
function mpc = case_ieee123_storage_114
%CASE_IEEE123_STORAGE_114

%% MATPOWER Case Format : Version 2
mpc.version = '2';

%%-----  Power Flow Data  -----%%
%% system MVA base
mpc.baseMVA = 1;

%% bus data
%	bus_i	type	Pd	Qd	Gs	Bs	area	Vm	Va	baseKV	zone	Vmax	Vmin
mpc.bus = [
	1	3	0.000199	9.95e-05	0	0	1	1	0	4.16	1	1.2	0.8;
	2	1	0.000939	0.0004695	0	0	1	1	0	4.16	1	1.2	0.8;
	3	1	0.000442	0.000221	0	0	1	1	0	4.16	1	1.2	0.8;
	4	1	0.000233	0.0001165	0	0	1	1	0	4.16	1	1.2	0.8;
	5	1	0.000328	0.000164	0	0	1	1	0	4.16	1	1.2	0.8;
	6	1	1e-10	5e-11	0	0	1	1	0	4.16	1	1.2	0.8;
	7	1	1e-10	5e-11	0	0	1	1	0	4.16	1	1.2	0.8;
	8	1	0.000563	0.0002815	0	0	1	1	0	4.16	1	1.2	0.8;
	9	1	0.002476	0.001238	0	0	1	1	0	4.16	1	1.2	0.8;
	10	1	0.000322	0.000161	0	0	1	1	0	4.16	1	1.2	0.8;
	11	1	0.000559	0.0002795	0	0	1	1	0	4.16	1	1.2	0.8;
	12	1	0.000546	0.000273	0	0	1	1	0	4.16	1	1.2	0.8;
	13	1	0.000201	0.0001005	0	0	1	1	0	4.16	1	1.2	0.8;
	14	1	1e-10	5e-11	0	0	1	1	0	4.16	1	1.2	0.8;
	15	1	0.001783	0.0008915	0	0	1	1	0	4.16	1	1.2	0.8;
	16	1	0.000192	9.6e-05	0	0	1	1	0	4.16	1	1.2	0.8;
	17	1	0.000387	0.0001935	0	0	1	1	0	4.16	1	1.2	0.8;
	18	1	0.000126	6.3e-05	0	0	1	1	0	4.16	1	1.2	0.8;
	19	1	0.000283	0.0001415	0	0	1	1	0	4.16	1	1.2	0.8;
	20	1	0.000184	9.2e-05	0	0	1	1	0	4.16	1	1.2	0.8;
	21	1	0.000257	0.0001285	0	0	1	1	0	4.16	1	1.2	0.8;
	22	1	0.000211	0.0001055	0	0	1	1	0	4.16	1	1.2	0.8;
	23	1	0.000258	0.000129	0	0	1	1	0	4.16	1	1.2	0.8;
	24	1	0.002924	0.001462	0	0	1	1	0	4.16	1	1.2	0.8;
	25	1	0.000248	0.000124	0	0	1	1	0	4.16	1	1.2	0.8;
	26	1	0.00074	0.00037	0	0	1	1	0	4.16	1	1.2	0.8;
	27	1	0.000445	0.0002225	0	0	1	1	0	4.16	1	1.2	0.8;
	28	1	0.000932	0.000466	0	0	1	1	0	4.16	1	1.2	0.8;
	29	1	0.000506	0.000253	0	0	1	1	0	4.16	1	1.2	0.8;
	30	1	0.000225	0.0001125	0	0	1	1	0	4.16	1	1.2	0.8;
	31	1	0.00037	0.000185	0	0	1	1	0	4.16	1	1.2	0.8;
	32	1	0.000421	0.0002105	0	0	1	1	0	4.16	1	1.2	0.8;
	33	1	0.000413	0.0002065	0	0	1	1	0	4.16	1	1.2	0.8;
	34	1	0.000351	0.0001755	0	0	1	1	0	4.16	1	1.2	0.8;
	35	1	0.000656	0.000328	0	0	1	1	0	4.16	1	1.2	0.8;
	36	1	0.000561	0.0002805	0	0	1	1	0	4.16	1	1.2	0.8;
	37	1	9.2e-05	4.6e-05	0	0	1	1	0	4.16	1	1.2	0.8;
	38	1	0.00013	6.5e-05	0	0	1	1	0	4.16	1	1.2	0.8;
	39	1	0.000543	0.0002715	0	0	1	1	0	4.16	1	1.2	0.8;
	40	1	0.00032	0.00016	0	0	1	1	0	4.16	1	1.2	0.8;
	41	1	0.000575	0.0002875	0	0	1	1	0	4.16	1	1.2	0.8;
	42	1	0.000357	0.0001785	0	0	1	1	0	4.16	1	1.2	0.8;
	43	1	0.000684	0.000342	0	0	1	1	0	4.16	1	1.2	0.8;
	44	1	0.000403	0.0002015	0	0	1	1	0	4.16	1	1.2	0.8;
	45	1	0.000428	0.000214	0	0	1	1	0	4.16	1	1.2	0.8;
	46	1	0.000307	0.0001535	0	0	1	1	0	4.16	1	1.2	0.8;
	47	1	0.000626	0.000313	0	0	1	1	0	4.16	1	1.2	0.8;
	48	1	0.003573	0.0017865	0	0	1	1	0	4.16	1	1.2	0.8;
	49	1	0.000651	0.0003255	0	0	1	1	0	4.16	1	1.2	0.8;
	50	1	0.000327	0.0001635	0	0	1	1	0	4.16	1	1.2	0.8;
	51	1	0.00033	0.000165	0	0	1	1	0	4.16	1	1.2	0.8;
	52	1	0.000317	0.0001585	0	0	1	1	0	4.16	1	1.2	0.8;
	53	1	0.000302	0.000151	0	0	1	1	0	4.16	1	1.2	0.8;
	54	1	0.000174	8.7e-05	0	0	1	1	0	4.16	1	1.2	0.8;
	55	1	0.000433	0.0002165	0	0	1	1	0	4.16	1	1.2	0.8;
	56	1	0.000203	0.0001015	0	0	1	1	0	4.16	1	1.2	0.8;
	57	1	0.000667	0.0003335	0	0	1	1	0	4.16	1	1.2	0.8;
	58	1	0.000364	0.000182	0	0	1	1	0	4.16	1	1.2	0.8;
	59	1	6.6e-05	3.3e-05	0	0	1	1	0	4.16	1	1.2	0.8;
	60	1	0.000236	0.000118	0	0	1	1	0	4.16	1	1.2	0.8;
];

%% generator data
%	bus	Pg	Qg	Qmax	Qmin	Vg	mBase	status	Pmax	Pmin	Pc1	Pc2	Qc1min	Qc1max	Qc2min	Qc2max	ramp_agc	ramp_10	ramp_30	ramp_q	apf
mpc.gen = [
	1	0.0313890003	0	200	-200	1	1	1	200	-200	0	0	0	0	0	0	10	0	0	0	0;
];

%% branch data
%	fbus	tbus	r	x	b	rateA	rateB	rateC	ratio	angle	status	angmin	angmax
mpc.branch = [
	1	2	0.0013398623	0.0027450827	3.02770272e-08	100	100	100	0	0	1	-80	80;
	1	2	0.0013398623	0.0027450827	3.02770272e-08	100	100	100	0	0	1	-80	80;
	2	3	0.0013398623	0.0027450827	3.02770272e-08	100	100	100	0	0	1	-80	80;
	3	4	0.0013398623	0.0027450827	3.02770272e-08	100	100	100	0	0	1	-80	80;
	4	5	0.0013398623	0.0027450827	3.02770272e-08	100	100	100	0	0	1	-80	80;
	5	6	0.0013398623	0.0027450827	3.02770272e-08	100	100	100	0	0	1	-80	80;
	6	7	0.0013398623	0.0027450827	3.02770272e-08	100	100	100	0	0	1	-80	80;
	7	8	0.0013398623	0.0027450827	3.02770272e-08	100	100	100	0	0	1	-80	80;
	8	9	0.0013398623	0.0027450827	3.02770272e-08	100	100	100	0	0	1	-80	80;
	9	10	0.0013398623	0.0027450827	3.02770272e-08	100	100	100	0	0	1	-80	80;
	10	11	0.0013398623	0.0027450827	3.02770272e-08	100	100	100	0	0	1	-80	80;
	11	12	0.0013398623	0.0027450827	3.02770272e-08	100	100	100	0	0	1	-80	80;
	12	13	0.0013398623	0.0027450827	3.02770272e-08	100	100	100	0	0	1	-80	80;
	13	14	0.0013398623	0.0027450827	3.02770272e-08	100	100	100	0	0	1	-80	80;
	14	15	0.0013398623	0.0027450827	3.02770272e-08	100	100	100	0	0	1	-80	80;
	15	16	0.0013398623	0.0027450827	3.02770272e-08	100	100	100	0	0	1	-80	80;
	16	17	0.0013398623	0.0027450827	3.02770272e-08	100	100	100	0	0	1	-80	80;
	17	18	0.0013398623	0.0027450827	3.02770272e-08	100	100	100	0	0	1	-80	80;
	18	19	0.0013398623	0.0027450827	3.02770272e-08	100	100	100	0	0	1	-80	80;
	19	20	0.0013398623	0.0027450827	3.02770272e-08	100	100	100	0	0	1	-80	80;
	20	21	0.0013398623	0.0027450827	3.02770272e-08	100	100	100	0	0	1	-80	80;
	21	22	0.0013398623	0.0027450827	3.02770272e-08	100	100	100	0	0	1	-80	80;
	22	23	0.0013398623	0.0027450827	3.02770272e-08	100	100	100	0	0	1	-80	80;
	23	24	0.0013398623	0.0027450827	3.02770272e-08	100	100	100	0	0	1	-80	80;
	24	25	0.0013398623	0.0027450827	3.02770272e-08	100	100	100	0	0	1	-80	80;
	25	26	0.0013398623	0.0027450827	3.02770272e-08	100	100	100	0	0	1	-80	80;
	26	27	0.0013398623	0.0027450827	3.02770272e-08	100	100	100	0	0	1	-80	80;
	27	28	0.0013398623	0.0027450827	3.02770272e-08	100	100	100	0	0	1	-80	80;
	28	29	0.0013398623	0.0027450827	3.02770272e-08	100	100	100	0	0	1	-80	80;
	1	30	0.0013398623	0.0027450827	3.02770272e-08	100	100	100	0	0	1	-80	80;
	30	31	0.0013398623	0.0027450827	3.02770272e-08	100	100	100	0	0	1	-80	80;
	31	32	0.0013398623	0.0027450827	3.02770272e-08	100	100	100	0	0	1	-80	80;
	32	33	0.0013398623	0.0027450827	3.02770272e-08	100	100	100	0	0	1	-80	80;
	33	34	0.0013398623	0.0027450827	3.02770272e-08	100	100	100	0	0	1	-80	80;
	34	35	0.0013398623	0.0027450827	3.02770272e-08	100	100	100	0	0	1	-80	80;
	35	36	0.0013398623	0.0027450827	3.02770272e-08	100	100	100	0	0	1	-80	80;
	36	37	0.0013398623	0.0027450827	3.02770272e-08	100	100	100	0	0	1	-80	80;
	37	38	0.0013398623	0.0027450827	3.02770272e-08	100	100	100	0	0	1	-80	80;
	38	39	0.0013398623	0.0027450827	3.02770272e-08	100	100	100	0	0	1	-80	80;
	39	40	0.0013398623	0.0027450827	3.02770272e-08	100	100	100	0	0	1	-80	80;
	40	41	0.0013398623	0.0027450827	3.02770272e-08	100	100	100	0	0	1	-80	80;
	41	42	0.0013398623	0.0027450827	3.02770272e-08	100	100	100	0	0	1	-80	80;
	42	43	0.0013398623	0.0027450827	3.02770272e-08	100	100	100	0	0	1	-80	80;
	43	44	0.0013398623	0.0027450827	3.02770272e-08	100	100	100	0	0	1	-80	80;
	44	45	0.0013398623	0.0027450827	3.02770272e-08	100	100	100	0	0	1	-80	80;
	45	46	0.0013398623	0.0027450827	3.02770272e-08	100	100	100	0	0	1	-80	80;
	46	47	0.0013398623	0.0027450827	3.02770272e-08	100	100	100	0	0	1	-80	80;
	47	48	0.0013398623	0.0027450827	3.02770272e-08	100	100	100	0	0	1	-80	80;
	48	49	0.0013398623	0.0027450827	3.02770272e-08	100	100	100	0	0	1	-80	80;
	49	50	0.0013398623	0.0027450827	3.02770272e-08	100	100	100	0	0	1	-80	80;
	50	51	0.0013398623	0.0027450827	3.02770272e-08	100	100	100	0	0	1	-80	80;
	51	52	0.0013398623	0.0027450827	3.02770272e-08	100	100	100	0	0	1	-80	80;
	52	53	0.0013398623	0.0027450827	3.02770272e-08	100	100	100	0	0	1	-80	80;
	53	54	0.0013398623	0.0027450827	3.02770272e-08	100	100	100	0	0	1	-80	80;
	54	55	0.0013398623	0.0027450827	3.02770272e-08	100	100	100	0	0	1	-80	80;
	55	56	0.0013398623	0.0027450827	3.02770272e-08	100	100	100	0	0	1	-80	80;
	56	57	0.0013398623	0.0027450827	3.02770272e-08	100	100	100	0	0	1	-80	80;
	57	58	0.0013398623	0.0027450827	3.02770272e-08	100	100	100	0	0	1	-80	80;
	58	59	0.0013398623	0.0027450827	3.02770272e-08	100	100	100	0	0	1	-80	80;
	59	60	0.0013398623	0.0027450827	3.02770272e-08	100	100	100	0	0	1	-80	80;
];

%%-----  OPF Data  -----%%
%% generator cost data
%	1	startup	shutdown	n	x1	y1	...	xn	yn
%	2	startup	shutdown	n	c(n-1)	...	c0
mpc.gencost = [
	2	0	0	3	1	1	0;
];
     %% storage data
 % hours;
mpc.time_elapsed = 0.0167
%   storage_bus  energy  energy_rating charge_rating  discharge_rating  charge_efficiency  discharge_efficiency  thermal_rating  qmin  qmax  r  x  standby_loss  status
mpc.storage = [
	 5            0.05     0.1          1             1                 0.9                0.9                   100.0        -50.0 70.0  0.1 0.0	0.05         1;
];
